Circuit: * C:\Users\Iacopo\Documents\EPFL\ERT\propulsion_software\Version_2\Desktop\Temperature\Acquisition_temp.asc

WARNING: Less than two connections to node OUT.  This node is used by R:U1:OUT:OUT.
Direct Newton iteration for .op point succeeded.
.step r=800
.step r=801
.step r=802
.step r=803
.step r=804
.step r=805
.step r=806
.step r=807
.step r=808
.step r=809
.step r=810
.step r=811
.step r=812
.step r=813
.step r=814
.step r=815
.step r=816
.step r=817
.step r=818
.step r=819
.step r=820
.step r=821
.step r=822
.step r=823
.step r=824
.step r=825
.step r=826
.step r=827
.step r=828
.step r=829
.step r=830
.step r=831
.step r=832
.step r=833
.step r=834
.step r=835
.step r=836
.step r=837
.step r=838
.step r=839
.step r=840
.step r=841
.step r=842
.step r=843
.step r=844
.step r=845
.step r=846
.step r=847
.step r=848
.step r=849
.step r=850
.step r=851
.step r=852
.step r=853
.step r=854
.step r=855
.step r=856
.step r=857
.step r=858
.step r=859
.step r=860
.step r=861
.step r=862
.step r=863
.step r=864
.step r=865
.step r=866
.step r=867
.step r=868
.step r=869
.step r=870
.step r=871
.step r=872
.step r=873
.step r=874
.step r=875
.step r=876
.step r=877
.step r=878
.step r=879
.step r=880
.step r=881
.step r=882
.step r=883
.step r=884
.step r=885
.step r=886
.step r=887
.step r=888
.step r=889
.step r=890
.step r=891
.step r=892
.step r=893
.step r=894
.step r=895
.step r=896
.step r=897
.step r=898
.step r=899
.step r=900
.step r=901
.step r=902
.step r=903
.step r=904
.step r=905
.step r=906
.step r=907
.step r=908
.step r=909
.step r=910
.step r=911
.step r=912
.step r=913
.step r=914
.step r=915
.step r=916
.step r=917
.step r=918
.step r=919
.step r=920
.step r=921
.step r=922
.step r=923
.step r=924
.step r=925
.step r=926
.step r=927
.step r=928
.step r=929
.step r=930
.step r=931
.step r=932
.step r=933
.step r=934
.step r=935
.step r=936
.step r=937
.step r=938
.step r=939
.step r=940
.step r=941
.step r=942
.step r=943
.step r=944
.step r=945
.step r=946
.step r=947
.step r=948
.step r=949
.step r=950
.step r=951
.step r=952
.step r=953
.step r=954
.step r=955
.step r=956
.step r=957
.step r=958
.step r=959
.step r=960
.step r=961
.step r=962
.step r=963
.step r=964
.step r=965
.step r=966
.step r=967
.step r=968
.step r=969
.step r=970
.step r=971
.step r=972
.step r=973
.step r=974
.step r=975
.step r=976
.step r=977
.step r=978
.step r=979
.step r=980
.step r=981
.step r=982
.step r=983
.step r=984
.step r=985
.step r=986
.step r=987
.step r=988
.step r=989
.step r=990
.step r=991
.step r=992
.step r=993
.step r=994
.step r=995
.step r=996
.step r=997
.step r=998
.step r=999
.step r=1000
.step r=1001
.step r=1002
.step r=1003
.step r=1004
.step r=1005
.step r=1006
.step r=1007
.step r=1008
.step r=1009
.step r=1010
.step r=1011
.step r=1012
.step r=1013
.step r=1014
.step r=1015
.step r=1016
.step r=1017
.step r=1018
.step r=1019
.step r=1020
.step r=1021
.step r=1022
.step r=1023
.step r=1024
.step r=1025
.step r=1026
.step r=1027
.step r=1028
.step r=1029
.step r=1030
.step r=1031
.step r=1032
.step r=1033
.step r=1034
.step r=1035
.step r=1036
.step r=1037
.step r=1038
.step r=1039
.step r=1040
.step r=1041
.step r=1042
.step r=1043
.step r=1044
.step r=1045
.step r=1046
.step r=1047
.step r=1048
.step r=1049
.step r=1050
.step r=1051
.step r=1052
.step r=1053
.step r=1054
.step r=1055
.step r=1056
.step r=1057
.step r=1058
.step r=1059
.step r=1060
.step r=1061
.step r=1062
.step r=1063
.step r=1064
.step r=1065
.step r=1066
.step r=1067
.step r=1068
.step r=1069
.step r=1070
.step r=1071
.step r=1072
.step r=1073
.step r=1074
.step r=1075
.step r=1076
.step r=1077
.step r=1078
.step r=1079
.step r=1080
.step r=1081
.step r=1082
.step r=1083
.step r=1084
.step r=1085
.step r=1086
.step r=1087
.step r=1088
.step r=1089
.step r=1090
.step r=1091
.step r=1092
.step r=1093
.step r=1094
.step r=1095
.step r=1096
.step r=1097
.step r=1098
.step r=1099
.step r=1100


Measurement: period
  step	period	FROM	TO
     1	0.0216527	0.0287263	0.050379
     2	0.0216006	0.0287609	0.0503616
     3	0.0215485	0.0287956	0.0503441
     4	0.0214964	0.0288302	0.0503266
     5	0.0214441	0.0288649	0.050309
     6	0.0213918	0.0288995	0.0502914
     7	0.0213395	0.0289342	0.0502737
     8	0.0212871	0.0289689	0.0502559
     9	0.0212346	0.0290035	0.0502381
    10	0.0211821	0.0290382	0.0502203
    11	0.0211295	0.0290728	0.0502023
    12	0.0210769	0.0291075	0.0501844
    13	0.0210242	0.0291421	0.0501663
    14	0.0209714	0.0291768	0.0501482
    15	0.0209186	0.0292115	0.0501301
    16	0.0208658	0.0292461	0.0501119
    17	0.0208129	0.0292808	0.0500936
    18	0.0207599	0.0293154	0.0500753
    19	0.0207068	0.0293501	0.0500569
    20	0.0206538	0.0293847	0.0500385
    21	0.0206006	0.0294194	0.05002
    22	0.0205474	0.0294541	0.0500015
    23	0.0204942	0.0294887	0.0499829
    24	0.0204408	0.0295234	0.0499642
    25	0.0203875	0.029558	0.0499455
    26	0.0203341	0.0295927	0.0499267
    27	0.0202806	0.0296274	0.0499079
    28	0.020227	0.029662	0.049889
    29	0.0201734	0.0296967	0.0498701
    30	0.0201198	0.0297313	0.0498511
    31	0.0200661	0.029766	0.0498321
    32	0.0200123	0.0298006	0.049813
    33	0.0199585	0.0298353	0.0497938
    34	0.0199046	0.02987	0.0497746
    35	0.0198507	0.0299046	0.0497553
    36	0.0197967	0.0299393	0.049736
    37	0.0197427	0.0299739	0.0497166
    38	0.0196886	0.0300086	0.0496972
    39	0.0196344	0.0300432	0.0496777
    40	0.0195802	0.0300779	0.0496581
    41	0.019526	0.0301126	0.0496385
    42	0.0194717	0.0301472	0.0496189
    43	0.0194173	0.0301819	0.0495992
    44	0.0193629	0.0302165	0.0495794
    45	0.0193084	0.0302512	0.0495596
    46	0.0192539	0.0302858	0.0495397
    47	0.0191993	0.0303205	0.0495198
    48	0.0191446	0.0303552	0.0494998
    49	0.0190899	0.0303898	0.0494797
    50	0.0190352	0.0304245	0.0494596
    51	0.0189804	0.0304591	0.0494395
    52	0.0189255	0.0304938	0.0494193
    53	0.0188706	0.0305285	0.049399
    54	0.0188156	0.0305631	0.0493787
    55	0.0187606	0.0305978	0.0493583
    56	0.0187055	0.0306324	0.0493379
    57	0.0186503	0.0306671	0.0493174
    58	0.0185952	0.0307017	0.0492969
    59	0.0185399	0.0307364	0.0492763
    60	0.0184846	0.0307711	0.0492557
    61	0.0184293	0.0308057	0.049235
    62	0.0183738	0.0308404	0.0492142
    63	0.0183184	0.030875	0.0491934
    64	0.0182629	0.0309097	0.0491726
    65	0.0182073	0.0309443	0.0491516
    66	0.0181517	0.030979	0.0491307
    67	0.018096	0.0310137	0.0491097
    68	0.0180403	0.0310483	0.0490886
    69	0.0179845	0.031083	0.0490675
    70	0.0179286	0.0311176	0.0490463
    71	0.0178728	0.0311523	0.049025
    72	0.0178168	0.0311869	0.0490037
    73	0.0177608	0.0312216	0.0489824
    74	0.0177048	0.0312563	0.048961
    75	0.0176486	0.0312909	0.0489396
    76	0.0175925	0.0313256	0.0489181
    77	0.0175363	0.0313602	0.0488965
    78	0.01748	0.0313949	0.0488749
    79	0.0174237	0.0314295	0.0488532
    80	0.0173673	0.0314642	0.0488315
    81	0.0173109	0.0314989	0.0488097
    82	0.0172544	0.0315335	0.0487879
    83	0.0171979	0.0315682	0.0487661
    84	0.0171413	0.0316028	0.0487441
    85	0.0170847	0.0316375	0.0487221
    86	0.017028	0.0316722	0.0487001
    87	0.0169712	0.0317068	0.048678
    88	0.0169144	0.0317415	0.0486559
    89	0.0168576	0.0317761	0.0486337
    90	0.0168007	0.0318108	0.0486114
    91	0.0167437	0.0318454	0.0485891
    92	0.0166867	0.0318801	0.0485668
    93	0.0166296	0.0319148	0.0485444
    94	0.0165725	0.0319494	0.0485219
    95	0.0165154	0.0319841	0.0484994
    96	0.0164582	0.0320187	0.0484769
    97	0.0164009	0.0320534	0.0484543
    98	0.0163436	0.032088	0.0484316
    99	0.0162862	0.0321227	0.0484089
   100	0.0162288	0.0321574	0.0483861
   101	0.0161713	0.032192	0.0483633
   102	0.0161138	0.0322267	0.0483404
   103	0.0160562	0.0322613	0.0483175
   104	0.0159985	0.032296	0.0482945
   105	0.0159409	0.0323306	0.0482715
   106	0.0158831	0.0323653	0.0482484
   107	0.0158253	0.0324	0.0482253
   108	0.0157675	0.0324346	0.0482021
   109	0.0157096	0.0324693	0.0481789
   110	0.0156516	0.0325039	0.0481556
   111	0.0155937	0.0325386	0.0481322
   112	0.0155356	0.0325732	0.0481089
   113	0.0154775	0.0326079	0.0480854
   114	0.0154194	0.0326426	0.0480619
   115	0.0153612	0.0326772	0.0480384
   116	0.0153029	0.0327119	0.0480148
   117	0.0152446	0.0327465	0.0479911
   118	0.0151862	0.0327812	0.0479674
   119	0.0151278	0.0328159	0.0479437
   120	0.0150694	0.0328505	0.0479199
   121	0.0150109	0.0328852	0.047896
   122	0.0149523	0.0329198	0.0478721
   123	0.0148937	0.0329545	0.0478482
   124	0.014835	0.0329891	0.0478242
   125	0.0147763	0.0330238	0.0478001
   126	0.0147176	0.0330585	0.047776
   127	0.0146587	0.0330931	0.0477519
   128	0.0145999	0.0331278	0.0477277
   129	0.014541	0.0331624	0.0477034
   130	0.014482	0.0331971	0.0476791
   131	0.014423	0.0332317	0.0476547
   132	0.0143639	0.0332664	0.0476303
   133	0.0143048	0.0333011	0.0476059
   134	0.0142456	0.0333357	0.0475813
   135	0.0141864	0.0333704	0.0475568
   136	0.0141271	0.033405	0.0475322
   137	0.0140678	0.0334397	0.0475075
   138	0.0140084	0.0334743	0.0474828
   139	0.013949	0.033509	0.047458
   140	0.0138896	0.0335437	0.0474332
   141	0.01383	0.0335783	0.0474084
   142	0.0137705	0.033613	0.0473834
   143	0.0137108	0.0336476	0.0473585
   144	0.0136512	0.0336823	0.0473335
   145	0.0135914	0.033717	0.0473084
   146	0.0135317	0.0337516	0.0472833
   147	0.0134719	0.0337863	0.0472581
   148	0.013412	0.0338209	0.0472329
   149	0.0133521	0.0338556	0.0472076
   150	0.0132921	0.0338902	0.0471823
   151	0.0132321	0.0339249	0.047157
   152	0.013172	0.0339596	0.0471316
   153	0.0131119	0.0339942	0.0471061
   154	0.0130517	0.0340289	0.0470806
   155	0.0129915	0.0340635	0.047055
   156	0.0129312	0.0340982	0.0470294
   157	0.0128709	0.0341328	0.0470038
   158	0.0128106	0.0341675	0.0469781
   159	0.0127501	0.0342022	0.0469523
   160	0.0126897	0.0342368	0.0469265
   161	0.0126292	0.0342715	0.0469006
   162	0.0125686	0.0343061	0.0468747
   163	0.012508	0.0343408	0.0468488
   164	0.0124473	0.0343754	0.0468228
   165	0.0123866	0.0344101	0.0467967
   166	0.0123259	0.0344448	0.0467706
   167	0.012265	0.0344794	0.0467445
   168	0.0122042	0.0345141	0.0467183
   169	0.0121433	0.0345487	0.046692
   170	0.0120823	0.0345834	0.0466657
   171	0.0120213	0.0346181	0.0466394
   172	0.0119603	0.0346527	0.046613
   173	0.0118992	0.0346874	0.0465865
   174	0.011838	0.034722	0.04656
   175	0.0117768	0.0347567	0.0465335
   176	0.0117156	0.0347913	0.0465069
   177	0.0116543	0.034826	0.0464803
   178	0.0115929	0.0348607	0.0464536
   179	0.0115315	0.0348953	0.0464269
   180	0.0114701	0.03493	0.0464001
   181	0.0114086	0.0349646	0.0463732
   182	0.0113471	0.0349993	0.0463464
   183	0.0112855	0.0350339	0.0463194
   184	0.0112239	0.0350686	0.0462925
   185	0.0111622	0.0351033	0.0462654
   186	0.0111004	0.0351379	0.0462384
   187	0.0110387	0.0351726	0.0462112
   188	0.0109768	0.0352072	0.0461841
   189	0.010915	0.0352419	0.0461569
   190	0.0108531	0.0352765	0.0461296
   191	0.0107911	0.0353112	0.0461023
   192	0.0107291	0.0353459	0.0460749
   193	0.010667	0.0353805	0.0460475
   194	0.0106049	0.0354152	0.0460201
   195	0.0105427	0.0354498	0.0459926
   196	0.0104805	0.0354845	0.045965
   197	0.0104183	0.0355192	0.0459374
   198	0.010356	0.0355538	0.0459098
   199	0.0102936	0.0355885	0.0458821
   200	0.0102312	0.0356231	0.0458543
   201	0.0101688	0.0356578	0.0458265
   202	0.0101063	0.0356924	0.0457987
   203	0.0100437	0.0357271	0.0457708
   204	0.00998114	0.0357618	0.0457429
   205	0.0099185	0.0357964	0.0457149
   206	0.00985582	0.0358311	0.0456869
   207	0.00979309	0.0358657	0.0456588
   208	0.00973031	0.0359004	0.0456307
   209	0.00966748	0.035935	0.0456025
   210	0.00960461	0.0359697	0.0455743
   211	0.0095417	0.0360044	0.0455461
   212	0.00947873	0.036039	0.0455177
   213	0.00941572	0.0360737	0.0454894
   214	0.00935266	0.0361083	0.045461
   215	0.00928955	0.036143	0.0454325
   216	0.0092264	0.0361776	0.045404
   217	0.0091632	0.0362123	0.0453755
   218	0.00909996	0.036247	0.0453469
   219	0.00903666	0.0362816	0.0453183
   220	0.00897332	0.0363163	0.0452896
   221	0.00890994	0.0363509	0.0452609
   222	0.0088465	0.0363856	0.0452321
   223	0.00878302	0.0364203	0.0452033
   224	0.00871949	0.0364549	0.0451744
   225	0.00865592	0.0364896	0.0451455
   226	0.0085923	0.0365242	0.0451165
   227	0.00852864	0.0365589	0.0450875
   228	0.00846493	0.0365935	0.0450585
   229	0.00840117	0.0366282	0.0450294
   230	0.00833736	0.0366629	0.0450002
   231	0.00827351	0.0366975	0.044971
   232	0.00820962	0.0367322	0.0449418
   233	0.00814567	0.0367668	0.0449125
   234	0.00808168	0.0368015	0.0448832
   235	0.00801765	0.0368361	0.0448538
   236	0.00795357	0.0368708	0.0448244
   237	0.00788944	0.0369055	0.0447949
   238	0.00782527	0.0369401	0.0447654
   239	0.00776105	0.0369748	0.0447358
   240	0.00769679	0.0370094	0.0447062
   241	0.00763248	0.0370441	0.0446766
   242	0.00756812	0.0370787	0.0446469
   243	0.00750372	0.0371134	0.0446171
   244	0.00743927	0.0371481	0.0445873
   245	0.00737478	0.0371827	0.0445575
   246	0.00731024	0.0372174	0.0445276
   247	0.00724565	0.037252	0.0444977
   248	0.00718102	0.0372867	0.0444677
   249	0.00711635	0.0373214	0.0444377
   250	0.00705163	0.037356	0.0444076
   251	0.00698686	0.0373907	0.0443775
   252	0.00692205	0.0374253	0.0443474
   253	0.00685719	0.03746	0.0443172
   254	0.00679229	0.0374946	0.0442869
   255	0.00672734	0.0375293	0.0442566
   256	0.00666235	0.037564	0.0442263
   257	0.00659731	0.0375986	0.0441959
   258	0.00653223	0.0376333	0.0441655
   259	0.0064671	0.0376679	0.044135
   260	0.00640193	0.0377026	0.0441045
   261	0.00633671	0.0377372	0.044074
   262	0.00627145	0.0377719	0.0440433
   263	0.00620614	0.0378066	0.0440127
   264	0.00614079	0.0378412	0.043982
   265	0.00607539	0.0378759	0.0439513
   266	0.00600994	0.0379105	0.0439205
   267	0.00594446	0.0379452	0.0438896
   268	0.00587892	0.0379798	0.0438588
   269	0.00581335	0.0380145	0.0438279
   270	0.00574772	0.0380492	0.0437969
   271	0.00568206	0.0380838	0.0437659
   272	0.00561635	0.0381185	0.0437348
   273	0.00555059	0.0381531	0.0437037
   274	0.00548479	0.0381878	0.0436726
   275	0.00541895	0.0382225	0.0436414
   276	0.00535305	0.0382571	0.0436102
   277	0.00528712	0.0382918	0.0435789
   278	0.00522114	0.0383264	0.0435476
   279	0.00515512	0.0383611	0.0435162
   280	0.00508906	0.0383957	0.0434848
   281	0.00502294	0.0384304	0.0434533
   282	0.00495679	0.0384651	0.0434218
   283	0.00489059	0.0384997	0.0433903
   284	0.00482435	0.0385344	0.0433587
   285	0.00475806	0.038569	0.0433271
   286	0.00469173	0.0386037	0.0432954
   287	0.00462535	0.0386383	0.0432637
   288	0.00455893	0.038673	0.0432319
   289	0.00449247	0.0387077	0.0432001
   290	0.00442596	0.0387423	0.0431683
   291	0.00435941	0.038777	0.0431364
   292	0.00429281	0.0388116	0.0431044
   293	0.00422617	0.0388463	0.0430725
   294	0.00415949	0.0388809	0.0430404
   295	0.00409276	0.0389156	0.0430084
   296	0.00402599	0.0389503	0.0429763
   297	0.00395918	0.0389849	0.0429441
   298	0.00389232	0.0390196	0.0429119
   299	0.00382542	0.0390542	0.0428797
   300	0.00375847	0.0390889	0.0428474
   301	0.00369148	0.0391236	0.042815


Date: Mon Mar  8 16:48:38 2021
Total elapsed time: 7.597 seconds.

tnom = 27
temp = 27
method = modified trap
totiter = 3542
traniter = 3539
tranpoints = 1645
accept = 1554
rejected = 91
matrix size = 12
fillins = 0
solver = Normal
Matrix Compiler1: 338 bytes object code size  0.1/0.1/[0.0]
Matrix Compiler2: 638 bytes object code size  0.1/0.1/[0.1]

